*Heading
** Job name: Lean-model Model name: Model-5-lean-linearsoft
** Generated by: Abaqus/CAE Learning Edition 2025
*Preprint, echo=NO, model=NO, history=NO, contact=NO
**
** PARTS
**
*Part, name=dbeam
*Node
      1,   826.732483,           0.
      2,   826.732483,         250.
      3,         200.,         250.
      4,         200.,           0.
      5,   1129.04248,           0.
      6,   1129.04248,         250.
      7,        1000.,         250.
      8,        1000.,           0.
      9,           0.,         250.
     10,           0.,           0.
     11,        1800.,         250.
     12,        1800.,           0.
     13,        2000.,           0.
     14,        2000.,         250.
     15,   826.732483,   19.2307701
     16,   826.732483,   38.4615402
     17,   826.732483,   57.6923065
     18,   826.732483,   76.9230804
     19,   826.732483,   96.1538467
     20,   826.732483,   115.384613
** ... 680 like lines cut
*Element, type=CPS4R
  1,   1,  15, 185,  62
  2,  15,  16, 186, 185
  3,  16,  17, 187, 186
  4,  17,  18, 188, 187
  5,  18,  19, 189, 188
  6,  19,  20, 190, 189
  7,  20,  21, 191, 190
  8,  21,  22, 192, 191
  9,  22,  23, 193, 192
 10,  23,  24, 194, 193
 11,  24,  25, 195, 194
 12,  25,  26, 196, 195
 13,  26,   2,  27, 196
 14,  62, 185, 197,  61
 15, 185, 186, 198, 197
 16, 186, 187, 199, 198
 17, 187, 188, 200, 199
 18, 188, 189, 201, 200
 19, 189, 190, 202, 201
 20, 190, 191, 203, 202
** ... 617 like lines cut
*Nset, nset=_PickedSet4, internal, generate
   1,  700,    1
*Elset, elset=_PickedSet4, internal, generate
   1,  637,    1
** Section: conc
*Solid Section, elset=_PickedSet4, material=conc
150.,
*End Part
**  
*Part, name=reinf
*Node
      1,           0.,           0.
      2,         100.,           0.
      3,         200.,           0.
      4,         300.,           0.
      5,         400.,           0.
      6,         500.,           0.
      7,         600.,           0.
      8,         700.,           0.
      9,         800.,           0.
     10,         900.,           0.
     11,        1000.,           0.
     12,        1100.,           0.
     13,        1200.,           0.
     14,        1300.,           0.
     15,        1400.,           0.
     16,        1500.,           0.
     17,        1600.,           0.
     18,        1700.,           0.
     19,        1800.,           0.
     20,        1900.,           0.
     21,        2000.,           0.
*Element, type=T2D2
 1,  1,  2
 2,  2,  3
 3,  3,  4
 4,  4,  5
 5,  5,  6
 6,  6,  7
 7,  7,  8
 8,  8,  9
 9,  9, 10
10, 10, 11
11, 11, 12
12, 12, 13
13, 13, 14
14, 14, 15
15, 15, 16
16, 16, 17
17, 17, 18
18, 18, 19
19, 19, 20
20, 20, 21
*Nset, nset=_PickedSet4, internal, generate
  1,  21,   1
*Elset, elset=_PickedSet4, internal, generate
  1,  20,   1
** Section: reinf10
*Solid Section, elset=_PickedSet4, material=reinf
235.619,
*End Part
**  
*Part, name=reinf12
*Node
      1,           0.,           0.
      2,         100.,           0.
      3,         200.,           0.
      4,         300.,           0.
      5,         400.,           0.
      6,         500.,           0.
      7,         600.,           0.
      8,         700.,           0.
      9,         800.,           0.
     10,         900.,           0.
     11,        1000.,           0.
     12,        1100.,           0.
     13,        1200.,           0.
     14,        1300.,           0.
     15,        1400.,           0.
     16,        1500.,           0.
     17,        1600.,           0.
     18,        1700.,           0.
     19,        1800.,           0.
     20,        1900.,           0.
     21,        2000.,           0.
*Element, type=T2D2
 1,  1,  2
 2,  2,  3
 3,  3,  4
 4,  4,  5
 5,  5,  6
 6,  6,  7
 7,  7,  8
 8,  8,  9
 9,  9, 10
10, 10, 11
11, 11, 12
12, 12, 13
13, 13, 14
14, 14, 15
15, 15, 16
16, 16, 17
17, 17, 18
18, 18, 19
19, 19, 20
20, 20, 21
*Nset, nset=_PickedSet4, internal, generate
  1,  21,   1
*Elset, elset=_PickedSet4, internal, generate
  1,  20,   1
** Section: reinf12
*Solid Section, elset=_PickedSet4, material=reinf
339.293,
*End Part
**  
**
** ASSEMBLY
**
*Assembly, name=Assembly
**  
*Instance, name=dbeam-1, part=dbeam
*End Instance
**  
*Instance, name=reinf-1, part=reinf
          0.,          {{c_nom_bottom}},           0.
*End Instance
**  
*Instance, name=reinf12-1, part=reinf12
          0.,         {{c_nom_top}},           0.
*End Instance
**  
*Nset, nset=Loading_Point, instance=dbeam-1
 11,
*Nset, nset=_PickedSet15, internal, instance=dbeam-1
 3,
*Nset, nset=_PickedSet16, internal, instance=dbeam-1
 8,
*Nset, nset=_PickedSet17, internal, instance=dbeam-1
 11,
*Nset, nset=_PickedSet26, internal, instance=reinf-1, generate
  1,  21,   1
*Nset, nset=_PickedSet26, internal, instance=reinf12-1, generate
  1,  21,   1
*Elset, elset=_PickedSet26, internal, instance=reinf-1, generate
  1,  20,   1
*Elset, elset=_PickedSet26, internal, instance=reinf12-1, generate
  1,  20,   1
*Nset, nset=_PickedSet27, internal, instance=dbeam-1, generate
   1,  700,    1
*Elset, elset=_PickedSet27, internal, instance=dbeam-1, generate
   1,  637,    1
** Constraint: Constraint-1
*Embedded Element, host elset=_PickedSet27
_PickedSet26
*End Assembly
** 
** MATERIALS
** 
*Material, name=conc
*Elastic
{{E_CONCRETE}}, 0.2
*Concrete Damaged Plasticity
30.,    0.1,   1.16,  0.667, 0.0008
*Concrete Compression Hardening
{{COMP_HARDENING_TABLE}}
*Concrete Tension Stiffening
{{TENSION_STIFFENING_TABLE}}
*Concrete Compression Damage
     0.,      0.
 0.0526, 0.00167
  0.105, 0.00208
  0.158, 0.00249
  0.211, 0.00289
  0.263,  0.0033
  0.316, 0.00371
  0.368, 0.00411
  0.421, 0.00452
  0.474, 0.00493
  0.526, 0.00534
  0.579, 0.00574
  0.632, 0.00615
  0.684, 0.00656
  0.737, 0.00696
  0.789, 0.00737
  0.842, 0.00778
  0.895, 0.00819
  0.947, 0.00859
*Concrete Tension Damage
     0.,       0.
 0.0375, 1.45e-05
  0.075, 2.89e-05
  0.113, 4.34e-05
   0.15, 5.78e-05
  0.187, 7.23e-05
  0.225, 8.67e-05
  0.262, 0.000101
    0.3, 0.000116
  0.337,  0.00013
  0.375, 0.000145
  0.412, 0.000159
   0.45, 0.000173
  0.487, 0.000188
  0.525, 0.000202
  0.562, 0.000217
    0.6, 0.000231
  0.637, 0.000246
  0.675,  0.00026
  0.712, 0.000275
** ... 20 like lines cut
*Material, name=reinf
*Elastic
210000., 0.3
*Plastic
500.,    0.
520., 0.015
** 
** BOUNDARY CONDITIONS
** 
** Name: BC-1 Type: Displacement/Rotation
*Boundary
_PickedSet15, 1, 1
_PickedSet15, 2, 2
** Name: BC-2 Type: Displacement/Rotation
*Boundary
_PickedSet16, 2, 2
** ----------------------------------------------------------------
** 
** STEP: Step-1
** 
*Step, name=Step-1, nlgeom=YES, inc=10000000
*Static
0.001, 1., 1e-09, 0.1
** 
** BOUNDARY CONDITIONS
** 
** Name: BC-3 Type: Displacement/Rotation
*Boundary
_PickedSet17, 2, 2, -20.
** 
** OUTPUT REQUESTS
** 
*Restart, write, frequency=0
** 
** FIELD OUTPUT: F-Output-1
** 
*Output, field, time interval=0.005, time marks=NO
*Node Output
RF, U
*Element Output, directions=YES
DAMAGEC, DAMAGET, PE, PEEQ, PEMAG, S, SDEG
** 
** HISTORY OUTPUT: H-Output-1
** 
*Output, history
*Node Output, nset=Loading_Point
RF2, U2
*End Step
